#======================================================================								
								
# CRYSTAL DATA								
								
#----------------------------------------------------------------------								
								
data_VESTA_phase_1								
								
								
_chemical_name_common                  'Na3V2(PO4)3'								
_cell_length_a                         8.72880								
_cell_length_b                         8.72880								
_cell_length_c                         21.80420								
_cell_angle_alpha                      90								
_cell_angle_beta                       90								
_cell_angle_gamma                      120								
_space_group_name_H-M_alt              'R -3 c'								
_space_group_IT_number                 167								
								
loop_								
_space_group_symop_operation_xyz								
   'x, y, z'								
   '-x, -y, -z'								
   '-y, x-y, z'								
   'y, -x+y, -z'								
   '-x+y, -x, z'								
   'x-y, x, -z'								
   'y, x, -z+1/2'								
   '-y, -x, z+1/2'								
   'x-y, -y, -z+1/2'								
   '-x+y, y, z+1/2'								
   '-x, -x+y, -z+1/2'								
   'x, x-y, z+1/2'								
   'x+2/3, y+1/3, z+1/3'								
   '-x+2/3, -y+1/3, -z+1/3'								
   '-y+2/3, x-y+1/3, z+1/3'								
   'y+2/3, -x+y+1/3, -z+1/3'								
   '-x+y+2/3, -x+1/3, z+1/3'								
   'x-y+2/3, x+1/3, -z+1/3'								
   'y+2/3, x+1/3, -z+5/6'								
   '-y+2/3, -x+1/3, z+5/6'								
   'x-y+2/3, -y+1/3, -z+5/6'								
   '-x+y+2/3, y+1/3, z+5/6'								
   '-x+2/3, -x+y+1/3, -z+5/6'								
   'x+2/3, x-y+1/3, z+5/6'								
   'x+1/3, y+2/3, z+2/3'								
   '-x+1/3, -y+2/3, -z+2/3'								
   '-y+1/3, x-y+2/3, z+2/3'								
   'y+1/3, -x+y+2/3, -z+2/3'								
   '-x+y+1/3, -x+2/3, z+2/3'								
   'x-y+1/3, x+2/3, -z+2/3'								
   'y+1/3, x+2/3, -z+1/6'								
   '-y+1/3, -x+2/3, z+1/6'								
   'x-y+1/3, -y+2/3, -z+1/6'								
   '-x+y+1/3, y+2/3, z+1/6'								
   '-x+1/3, -x+y+2/3, -z+1/6'								
   'x+1/3, x-y+2/3, z+1/6'								
								
loop_								
   _atom_site_label								
   _atom_site_occupancy								
   _atom_site_fract_x								
   _atom_site_fract_y								
   _atom_site_fract_z								
   _atom_site_adp_type								
   _atom_site_B_iso_or_equiv								
   _atom_site_type_symbol								
	O1	1	0.14193	0.49765	0.07762	Biso	1	O
	O2	1	0.54047	0.8448	0.97357	Biso	1	O
	Na1	1	0.333333	0.666667	0.166667	Biso	1	Na
	Na2	1	0.666667	0.96724	0.083333	Biso	1	Na
	P1	1	0.95729	0.333333	0.083333	Biso	1	P
	V1	1	0.333333	0.666667	0.0195	Biso	1	V
	X1	1	0.333333	0.666667	0.166667	Biso	1	X
	X2	1	0.36868186	0.69847148	0.16428357	Biso	1	X
	X3	1	0.368681855	0.698471484	0.164283571	Biso	1	X
	X4	1	0.37775985	0.706571932	0.163839438	Biso	1	X
	X5	1	0.38614646	0.714043581	0.16336532	Biso	1	X
	X6	1	0.398718355	0.725243936	0.162533819	Biso	1	X
	X7	1	0.411228806	0.736400583	0.161586536	Biso	1	X
	X8	1	0.423671426	0.747522686	0.160536825	Biso	1	X
	X9	1	0.436035275	0.758618862	0.159389824	Biso	1	X
	X10	1	0.448304444	0.769695207	0.158143797	Biso	1	X
	X11	1	0.46045408	0.780754447	0.156788945	Biso	1	X
	X12	1	0.472442248	0.791787146	0.155300358	Biso	1	X
	X13	1	0.482856803	0.801496244	0.153858087	Biso	1	X
	X14	1	0.491754777	0.809890348	0.152517231	Biso	1	X
	X15	1	0.500471194	0.81821525	0.151058741	Biso	1	X
	X16	1	0.508979132	0.826445969	0.149463448	Biso	1	X
	X17	1	0.517296275	0.834583801	0.147744331	Biso	1	X
	X18	1	0.526431463	0.843605471	0.145676916	Biso	1	X
	X19	1	0.53330437	0.850415573	0.144029009	Biso	1	X
	X20	1	0.541481941	0.858533543	0.141953654	Biso	1	X
	X21	1	0.548738299	0.86579822	0.139956215	Biso	1	X
	X22	1	0.55364998	0.8707062	0.13853257	Biso	1	X
	X23	1	0.55364998	0.8707062	0.13853257	Biso	1	X
	X24	1	0.558561647	0.875614176	0.137108925	Biso	1	X
	X25	1	0.56527829	0.882321197	0.135056817	Biso	1	X
	X26	1	0.571379672	0.888438301	0.133125533	Biso	1	X
	X27	1	0.577045554	0.894108964	0.131298409	Biso	1	X
	X28	1	0.585978014	0.903076134	0.128317015	Biso	1	X
	X29	1	0.594807962	0.911945702	0.125287828	Biso	1	X
	X30	1	0.603831836	0.921075887	0.122070068	Biso	1	X
	X31	1	0.612665025	0.930100797	0.118787093	Biso	1	X
	X32	1	0.621262692	0.93899648	0.115427367	Biso	1	X
	X33	1	0.629535617	0.947689974	0.111962781	Biso	1	X
	X34	1	0.637334253	0.956024392	0.108344531	Biso	1	X
	X35	1	0.644410635	0.963674051	0.104495307	Biso	1	X
	X36	1	0.650344134	0.970045954	0.100320243	Biso	1	X
	X37	1	0.654384957	0.973931406	0.096386953	Biso	1	X
	X38	1	0.65438496	0.9739314	0.09638695	Biso	1	X
	X39	1	0.666667	0.96724	0.083333	Biso	1	X
